# KPP parameters
 &KPP_PARM01
 KPPmixingMaps   = .FALSE.,      # No KPP mixing maps needed for tsunami simulation
 KPPwriteState   = .FALSE.,      # No need to write KPP state (to save computation time)
 kpp_dumpFreq    = 0.,           # No frequent output for KPP diagnostics
 kpp_tavefreq    = 0.,           # No time-averaged outputs for KPP diagnostics
 Ricr            = 0.3583,       # Critical Richardson number for shear instabilities
 Riinfty         = 0.6998,       # Infinite Richardson number to limit vertical mixing
 &
