 &PACKAGES
 useEXF=.TRUE.,         # External forcing
 useOBCS=.TRUE.,        # Open boundary conditions
 useDIAGNOSTICS=.TRUE., # Diagnostics
 &
