 &PACKAGES
 useDiagnostics=.TRUE.,
 useKPP=.FALSE.,
