 &PARM01
 delX=30.0, delY=30.0,          ! Grid resolution (uniform)
 deltaT=30.0,                   ! Time step (seconds)
 nIter0=0, nTimeSteps=4800,     ! 4 hours of simulation
 useSingleCPUio=.TRUE.,

 &PARM02
 readBinaryPrec=64,             ! Binary precision
 bathyFile='bathy.bin',         ! Bathymetry file
 external_forcing_surface='ETAN_IC.bin' ! Initial sea surface height
