 &PACKAGES
  useDiagnostics=.TRUE.,
  useKPP=.TRUE.,                 ! Vertical mixing
  useEXF=.TRUE.,                 ! External forcing (for surface heating)
 &END
